Version 4
SHEET 1 880 680
SYMBOL H_bridge 256 224 R0
SYMATTR InstName X1
