Version 4
SHEET 1 3524 1684
WIRE -192 -256 -320 -256
WIRE -144 -256 -192 -256
WIRE -64 -256 -144 -256
WIRE 80 -256 -64 -256
WIRE -320 -208 -320 -256
WIRE -192 -208 -192 -256
WIRE -64 -208 -64 -256
WIRE 80 -208 80 -256
WIRE -64 -144 -192 -144
WIRE 80 -144 -64 -144
WIRE -320 -96 -320 -128
WIRE -64 -96 -64 -144
WIRE -80 16 -320 16
WIRE 64 16 -80 16
WIRE 240 16 64 16
WIRE 1088 16 1024 16
WIRE 1152 16 1088 16
WIRE 1536 16 1520 16
WIRE 1568 16 1536 16
WIRE -320 32 -320 16
WIRE 1024 32 1024 16
WIRE 1152 48 1152 16
WIRE -320 128 -320 112
WIRE 1024 128 1024 112
WIRE 1088 128 1024 128
WIRE 1152 128 1152 112
WIRE 1152 128 1088 128
WIRE 1568 128 1568 16
WIRE 240 144 240 16
WIRE 464 144 416 144
WIRE -64 160 -128 160
WIRE -48 160 -64 160
WIRE 96 160 32 160
WIRE 144 160 96 160
WIRE 416 160 416 144
WIRE 416 160 320 160
WIRE 624 176 576 176
WIRE 1264 176 1232 176
WIRE 1520 176 1520 16
WIRE 1520 176 1488 176
WIRE -80 240 -80 16
WIRE -80 240 -128 240
WIRE -48 240 -80 240
WIRE 96 240 32 240
WIRE 144 240 96 240
WIRE 464 240 320 240
WIRE 784 240 576 240
WIRE 880 240 784 240
WIRE 944 240 880 240
WIRE 1072 240 1008 240
WIRE 1088 240 1088 128
WIRE 1088 240 1072 240
WIRE 1264 240 1088 240
WIRE 1568 240 1568 208
WIRE 1568 240 1488 240
WIRE -64 304 -64 160
WIRE 240 304 240 256
WIRE 240 304 -64 304
WIRE 1264 304 1168 304
WIRE 1568 304 1568 240
WIRE 1568 304 1488 304
WIRE 1664 304 1568 304
WIRE 240 368 240 304
WIRE 1264 368 1104 368
WIRE 1504 368 1488 368
WIRE 1664 384 1664 304
WIRE 1504 400 1504 368
WIRE 1168 432 1168 304
WIRE 1232 448 1232 176
WIRE 1664 464 1664 448
WIRE 1456 736 1440 736
WIRE 1536 736 1456 736
WIRE 1600 736 1536 736
WIRE 1456 784 1456 736
WIRE 1600 912 1600 736
WIRE 1456 928 1456 864
WIRE 1568 928 1456 928
WIRE 1696 944 1632 944
WIRE 1936 944 1696 944
WIRE 2064 944 1936 944
WIRE 1168 960 1168 432
WIRE 1232 960 1168 960
WIRE 1568 960 1232 960
WIRE 1600 992 1600 976
WIRE 1456 1008 1456 928
WIRE 2064 1088 2064 1024
WIRE 2160 1088 2064 1088
WIRE 1456 1104 1456 1088
WIRE 2064 1120 2064 1088
FLAG 240 368 0
FLAG 64 80 0
FLAG -128 240 o2
IOPIN -128 240 In
FLAG -128 160 o1
IOPIN -128 160 In
FLAG -320 128 0
FLAG 96 160 b1
FLAG 96 240 b2
FLAG 784 240 ENC
IOPIN 784 240 Out
FLAG 624 176 w
FLAG 1232 448 0
FLAG 1504 464 0
FLAG 1664 464 0
FLAG 880 240 ENC
FLAG -320 -96 0
FLAG -64 -96 0
FLAG -144 -256 VCC
FLAG 1088 16 VCC
FLAG 1536 16 VCC
FLAG 1104 368 VCC
FLAG 2064 1184 0
FLAG 1072 240 trig
FLAG 2160 1088 Speed
FLAG 1536 736 VCC
FLAG 1696 944 pwm_buffered
FLAG 1168 432 555_out
FLAG 1232 960 555_out
FLAG 1936 944 pwm_buffered
FLAG 1600 992 0
FLAG 1456 1104 0
SYMBOL res -64 176 R270
WINDOW 0 32 56 VTop 2
WINDOW 3 0 56 VBottom 2
SYMATTR InstName RB
SYMATTR Value 680
SYMBOL res -64 256 R270
WINDOW 0 32 56 VTop 2
WINDOW 3 0 56 VBottom 2
SYMATTR InstName RB2
SYMATTR Value 680
SYMBOL cap 48 16 R0
SYMATTR InstName C8
SYMATTR Value 47µ
SYMBOL LTSpice-Libraries-master\\LTSpice-Libraries-master\\sym\\voltage -320 16 R0
WINDOW 123 0 0 Left 2
WINDOW 39 0 0 Left 2
SYMATTR InstName VDC
SYMATTR Value 10
SYMBOL H_bridge1 256 224 R0
SYMATTR InstName X1
SYMBOL DC_motor_model 512 192 R0
SYMATTR InstName X2
SYMBOL res 1008 16 R0
SYMATTR InstName R1
SYMATTR Value 1k
SYMBOL diode 1168 112 R180
WINDOW 0 24 64 Left 2
WINDOW 3 24 0 Left 2
SYMATTR InstName D1
SYMATTR Value 1N4148
SYMBOL cap 944 256 R270
WINDOW 0 32 32 VTop 2
WINDOW 3 0 32 VBottom 2
SYMATTR InstName C1
SYMATTR Value 4.7n
SYMBOL LM555 1376 272 R0
SYMATTR InstName U1
SYMBOL res 1552 112 R0
SYMATTR InstName R2
SYMATTR Value 6.3k
SYMBOL cap 1648 384 R0
SYMATTR InstName C2
SYMATTR Value .1µ
SYMBOL cap 1488 400 R0
SYMATTR InstName C4
SYMATTR Value 0.1µF
SYMBOL voltage -320 -224 R0
WINDOW 123 0 0 Left 2
WINDOW 39 0 0 Left 2
SYMATTR InstName VCC
SYMATTR Value 5
SYMBOL cap -80 -208 R0
SYMATTR InstName C5
SYMATTR Value 0.1µ
SYMBOL cap 64 -208 R0
SYMATTR InstName C6
SYMATTR Value .1µ
SYMBOL polcap -208 -208 R0
SYMATTR InstName C7
SYMATTR Value 47µ
SYMBOL res 2048 928 R0
SYMATTR InstName R3
SYMATTR Value 200k
SYMBOL cap 2048 1120 R0
SYMATTR InstName C3
SYMATTR Value 10n
SYMBOL res 1472 1104 R180
WINDOW 0 36 76 Left 2
WINDOW 3 36 40 Left 2
SYMATTR InstName R4
SYMATTR Value 33k
SYMBOL res 1472 880 R180
WINDOW 0 36 76 Left 2
WINDOW 3 36 40 Left 2
SYMATTR InstName R5
SYMATTR Value 33k
SYMBOL TLV272 1600 944 R0
SYMATTR InstName U3
TEXT -104 424 Left 2 !.tran 0 0.05 0 startup
