Version 4
SHEET 1 3524 1684
WIRE -192 -256 -320 -256
WIRE -144 -256 -192 -256
WIRE -64 -256 -144 -256
WIRE 80 -256 -64 -256
WIRE 384 -256 256 -256
WIRE 432 -256 384 -256
WIRE 512 -256 432 -256
WIRE 656 -256 512 -256
WIRE -320 -208 -320 -256
WIRE -192 -208 -192 -256
WIRE -64 -208 -64 -256
WIRE 80 -208 80 -256
WIRE 256 -208 256 -256
WIRE 384 -208 384 -256
WIRE 512 -208 512 -256
WIRE 656 -208 656 -256
WIRE -64 -144 -192 -144
WIRE 80 -144 -64 -144
WIRE 512 -144 384 -144
WIRE 656 -144 512 -144
WIRE -320 -96 -320 -128
WIRE -64 -96 -64 -144
WIRE 256 -96 256 -128
WIRE 512 -96 512 -144
WIRE 64 16 -320 16
WIRE 240 16 64 16
WIRE 1312 16 800 16
WIRE -320 32 -320 16
WIRE -320 128 -320 112
WIRE 240 144 240 16
WIRE 464 144 416 144
WIRE -128 160 -240 160
WIRE -48 160 -128 160
WIRE 96 160 32 160
WIRE 144 160 96 160
WIRE 416 160 416 144
WIRE 416 160 320 160
WIRE 624 176 576 176
WIRE -96 240 -128 240
WIRE -48 240 -96 240
WIRE 96 240 32 240
WIRE 144 240 96 240
WIRE 464 240 320 240
WIRE 800 240 800 16
WIRE 800 240 576 240
WIRE 1312 240 1312 16
WIRE 912 272 912 160
WIRE 928 272 912 272
WIRE -448 336 -816 336
WIRE -240 352 -240 160
WIRE -240 352 -288 352
WIRE -448 368 -576 368
WIRE 240 368 240 256
WIRE 1312 368 1312 240
WIRE 1312 368 1152 368
WIRE -224 384 -288 384
WIRE -448 400 -480 400
WIRE 1280 400 1152 400
WIRE -576 416 -576 368
WIRE -224 432 -224 384
WIRE -448 544 -816 544
WIRE -96 560 -96 240
WIRE -96 560 -288 560
WIRE -576 576 -576 416
WIRE -576 576 -704 576
WIRE -448 576 -576 576
WIRE 480 576 336 576
WIRE 1280 576 1280 400
WIRE 1280 576 480 576
WIRE -224 592 -224 432
WIRE -224 592 -288 592
WIRE -480 608 -480 400
WIRE -448 608 -480 608
WIRE -784 736 -928 736
WIRE -704 736 -704 576
WIRE -704 784 -704 736
WIRE -480 784 -480 608
WIRE 336 784 336 576
WIRE 336 784 -480 784
FLAG 240 368 0
FLAG 64 80 0
FLAG -128 240 o2
IOPIN -128 240 In
FLAG -128 160 o1
IOPIN -128 160 In
FLAG -320 128 0
FLAG 96 160 b1
FLAG 96 240 b2
FLAG 624 176 Omega
IOPIN 624 176 Out
FLAG -320 -96 0
FLAG -64 -96 0
FLAG -144 -256 VCC
FLAG 912 160 VCC
FLAG -224 432 VCC
FLAG -704 848 0
FLAG -928 736 REF
IOPIN -928 736 In
FLAG -576 416 speed_ref
FLAG 480 576 sense_pwm
FLAG 1312 240 enc
FLAG -816 544 CCW
IOPIN -816 544 In
FLAG -816 336 CW
IOPIN -816 336 In
FLAG 256 -96 0
FLAG 512 -96 0
FLAG 432 -256 VDC
SYMBOL res -64 176 R270
WINDOW 0 32 56 VTop 2
WINDOW 3 0 56 VBottom 2
SYMATTR InstName RB
SYMATTR Value 680
SYMBOL res -64 256 R270
WINDOW 0 32 56 VTop 2
WINDOW 3 0 56 VBottom 2
SYMATTR InstName RB2
SYMATTR Value 680
SYMBOL cap 48 16 R0
SYMATTR InstName C8
SYMATTR Value 47µ
SYMBOL LTSpice-Libraries-master\\LTSpice-Libraries-master\\sym\\voltage -320 16 R0
WINDOW 123 0 0 Left 2
WINDOW 39 0 0 Left 2
SYMATTR InstName VDC
SYMATTR Value 10
SYMBOL H_bridge1 256 224 R0
SYMATTR InstName X1
SYMBOL DC_motor_model 512 192 R0
SYMATTR InstName X2
SYMBOL voltage -320 -224 R0
WINDOW 123 0 0 Left 2
WINDOW 39 0 0 Left 2
SYMATTR InstName VCC
SYMATTR Value 5
SYMBOL cap -80 -208 R0
SYMATTR InstName C5
SYMATTR Value 0.1µ
SYMBOL cap 64 -208 R0
SYMATTR InstName C6
SYMATTR Value .1µ
SYMBOL polcap -208 -208 R0
SYMATTR InstName C7
SYMATTR Value 47µ
SYMBOL SpeedSensor_Circuit_555_oneshot_trigger 1040 336 R0
SYMATTR InstName X3
SYMBOL Feedback_circuit -368 368 R0
SYMATTR InstName X4
SYMBOL Feedback_circuit -368 576 R0
SYMATTR InstName X5
SYMBOL res -688 720 R90
WINDOW 0 0 56 VBottom 2
WINDOW 3 32 56 VTop 2
SYMATTR InstName R3
SYMATTR Value 18k
SYMBOL cap -720 784 R0
SYMATTR InstName c12
SYMATTR Value 1µ
SYMBOL voltage 256 -224 R0
WINDOW 123 0 0 Left 2
WINDOW 39 0 0 Left 2
SYMATTR InstName VCC1
SYMATTR Value 10
SYMBOL cap 496 -208 R0
SYMATTR InstName C1
SYMATTR Value 0.1µ
SYMBOL cap 640 -208 R0
SYMATTR InstName C2
SYMATTR Value .1µ
SYMBOL polcap 368 -208 R0
SYMATTR InstName C3
SYMATTR Value 47µ
TEXT -384 856 Left 2 !.tran 0 0.05 0 startup
