Version 4
SHEET 1 1484 680
WIRE -80 16 -320 16
WIRE 64 16 -80 16
WIRE 240 16 64 16
WIRE -320 32 -320 16
WIRE -320 128 -320 112
WIRE 240 144 240 16
WIRE -64 160 -128 160
WIRE -48 160 -64 160
WIRE 96 160 32 160
WIRE 144 160 96 160
WIRE 352 160 352 96
WIRE 352 160 320 160
WIRE 432 176 432 96
WIRE 464 176 432 176
WIRE 688 208 576 208
WIRE -80 240 -80 16
WIRE -80 240 -128 240
WIRE -48 240 -80 240
WIRE 96 240 32 240
WIRE 144 240 96 240
WIRE 384 240 320 240
WIRE 384 272 384 240
WIRE 416 272 384 272
WIRE 464 272 416 272
WIRE 640 272 576 272
WIRE -64 304 -64 160
WIRE 240 304 240 256
WIRE 240 304 -64 304
WIRE 240 368 240 304
FLAG 240 368 0
FLAG 64 80 0
FLAG -128 240 o2
IOPIN -128 240 In
FLAG -128 160 o1
IOPIN -128 160 In
FLAG -320 128 0
FLAG 96 160 b1
FLAG 96 240 b2
FLAG 640 272 ENC
IOPIN 640 272 Out
FLAG 688 208 omega
IOPIN 688 208 Out
FLAG 416 272 0
SYMBOL res -64 176 R270
WINDOW 0 32 56 VTop 2
WINDOW 3 0 56 VBottom 2
SYMATTR InstName RB
SYMATTR Value 1k
SYMBOL res -64 256 R270
WINDOW 0 32 56 VTop 2
WINDOW 3 0 56 VBottom 2
SYMATTR InstName RB2
SYMATTR Value 1k
SYMBOL cap 48 16 R0
SYMATTR InstName C1
SYMATTR Value 47µ
SYMBOL LTSpice-Libraries-master\\LTSpice-Libraries-master\\sym\\voltage -320 16 R0
WINDOW 123 0 0 Left 2
WINDOW 39 0 0 Left 2
SYMATTR InstName V1
SYMATTR Value 10
SYMBOL DC_motor_model 512 224 R0
SYMATTR InstName X2
SYMBOL H_bridge1 256 224 R0
SYMATTR InstName X1
SYMBOL res 448 80 R90
WINDOW 0 0 56 VBottom 2
WINDOW 3 32 56 VTop 2
SYMATTR InstName R1
SYMATTR Value .0001
TEXT -104 424 Left 2 !.tran 0 0.05 0 startup
