Version 4
SHEET 1 880 1348
WIRE -560 160 -624 160
WIRE -496 160 -560 160
WIRE -112 160 -128 160
WIRE -80 160 -112 160
WIRE -624 176 -624 160
WIRE -496 192 -496 160
WIRE -624 272 -624 256
WIRE -560 272 -624 272
WIRE -496 272 -496 256
WIRE -496 272 -560 272
WIRE -80 272 -80 160
WIRE -384 320 -416 320
WIRE -128 320 -128 160
WIRE -128 320 -160 320
WIRE -768 384 -864 384
WIRE -704 384 -768 384
WIRE -576 384 -640 384
WIRE -560 384 -560 272
WIRE -560 384 -576 384
WIRE -384 384 -560 384
WIRE -80 384 -80 352
WIRE -80 384 -160 384
WIRE -384 448 -480 448
WIRE -80 448 -80 384
WIRE -80 448 -160 448
WIRE 16 448 -80 448
WIRE -384 512 -544 512
WIRE -144 512 -160 512
WIRE 16 528 16 448
WIRE -144 544 -144 512
WIRE -480 576 -480 448
WIRE -416 592 -416 320
WIRE 16 608 16 592
WIRE -192 880 -208 880
WIRE -112 880 -192 880
WIRE -48 880 -112 880
WIRE -192 928 -192 880
WIRE -48 1056 -48 880
WIRE -192 1072 -192 1008
WIRE -80 1072 -192 1072
WIRE 48 1088 -16 1088
WIRE 416 1088 48 1088
WIRE -480 1104 -480 576
WIRE -416 1104 -480 1104
WIRE -80 1104 -416 1104
WIRE -48 1136 -48 1120
WIRE 416 1136 416 1088
WIRE -192 1152 -192 1072
WIRE 416 1232 416 1216
WIRE 512 1232 416 1232
WIRE -192 1248 -192 1232
WIRE 416 1264 416 1232
FLAG -864 384 ENC
IOPIN -864 384 Out
FLAG -416 592 0
FLAG -144 608 0
FLAG 16 608 0
FLAG -768 384 ENC
FLAG -560 160 VCC
IOPIN -560 160 BiDir
FLAG -112 160 VCC
FLAG -544 512 VCC
IOPIN -544 512 BiDir
FLAG 416 1328 0
FLAG -576 384 trig
FLAG 512 1232 Speed
IOPIN 512 1232 Out
FLAG -112 880 VCC
FLAG 48 1088 pwm_buffered
FLAG -480 576 555_out
FLAG -416 1104 555_out
FLAG 416 1088 pwm_buffered
IOPIN 416 1088 Out
FLAG -48 1136 0
FLAG -192 1248 0
SYMBOL res -640 160 R0
SYMATTR InstName R1
SYMATTR Value 1k
SYMBOL diode -480 256 R180
WINDOW 0 24 64 Left 2
WINDOW 3 24 0 Left 2
SYMATTR InstName D1
SYMATTR Value 1N4148
SYMBOL cap -704 400 R270
WINDOW 0 32 32 VTop 2
WINDOW 3 0 32 VBottom 2
SYMATTR InstName C1
SYMATTR Value 4.7n
SYMBOL LM555 -272 416 R0
SYMATTR InstName U1
SYMBOL res -96 256 R0
SYMATTR InstName R2
SYMATTR Value 10k
SYMBOL cap 0 528 R0
SYMATTR InstName C2
SYMATTR Value .1µ
SYMBOL cap -160 544 R0
SYMATTR InstName C3
SYMATTR Value 0.1µF
SYMBOL res 400 1120 R0
SYMATTR InstName R3
SYMATTR Value 5.6k
SYMBOL cap 400 1264 R0
SYMATTR InstName C4
SYMATTR Value .1µ
SYMBOL res -176 1248 R180
WINDOW 0 36 76 Left 2
WINDOW 3 36 40 Left 2
SYMATTR InstName R4
SYMATTR Value 47k
SYMBOL res -176 1024 R180
WINDOW 0 36 76 Left 2
WINDOW 3 36 40 Left 2
SYMATTR InstName R5
SYMATTR Value 47k
SYMBOL TLC3702 -48 1088 R0
SYMATTR InstName U2
TEXT 32 1008 Left 2 ;comparator
